  33

  H    -11.70649804  13.09981157  69.94617911 
  H    -12.06839424  14.3541211   70.66071337
  C    -12.170  13.963  69.746  1.00 39.95           C
  C    -11.804  14.454  68.341  1.00 38.38           C
  O    -10.606  14.442  68.036  1.00 44.55           O
  H    -13.131  13.829  69.767  1.00 39.95           H   
  C    -11.832  15.491  65.878  1.00 20.00           C
  C    -12.422  16.890  65.699  1.00 20.00           C
  C    -11.667  17.948  65.902  1.00 20.00           C
  C    -10.208  17.820  66.347  1.00 20.00           C
  C    -12.437  14.594  64.806  1.00 20.00           C
  C    -11.835  13.199  64.838  1.00 20.00           C
  C    -10.368  13.241  64.572  1.00 20.00           C
  C    -10.110  11.892  63.885  1.00 20.00           C
  N    -11.386  11.531  63.232  1.00 20.00           N
  C    -12.428  12.306  63.787  1.00 20.00           C
  O    -13.559  12.260  63.495  1.00 20.00           O
  N    -12.282  14.994  67.123  1.00 20.00           N
  O     -9.943  17.785  67.572  1.00 20.00           O
  H    -12.025  12.853  65.724  1.00 20.00           H   
  H    -13.397  14.536  64.935  1.00 20.00           H   
  H    -12.292  14.990  63.932  1.00 20.00           H   
  H    -12.044  18.831  65.766  1.00 20.00           H   
  H    -13.350  16.997  65.437  1.00 20.00           H   
  H    -11.479  10.942  62.612  1.00 20.00           H   
  H     -9.393  11.962  63.236  1.00 20.00           H   
  H     -9.844  11.217  64.529  1.00 20.00           H   
  H    -10.127  13.988  64.002  1.00 20.00           H   
  H     -9.856  13.332  65.391  1.00 20.00           H   
  H    -10.864  15.513  65.826  1.00 20.00           H   
  H    -13.282  14.994  67.123  1.00 20.00           H   
  H     -8.20492189 17.70918255 66.39719362 
  O     -8.911  17.849  65.703  1.00 52.13           O
