          339
    15.00000000000000         15.00000000000000         15.00000000000000     
   O        2.071828   12.850719   13.249865
   H        2.777940   12.503029   12.705119
   H        1.292297   12.373370   12.965785
   O        3.014813   14.103184    9.032765
   H        2.248332   13.605417    9.317312
   H        3.553747   13.466460    8.563336
   O       11.390150    6.370294   11.123602
   H       12.047637    5.776602   10.761009
   H       10.724378    5.792293   11.496287
   O        1.134164   13.262779    0.657723
   H        1.439470   12.487274    1.128479
   H        1.454502   13.142453   -0.236222
   O       10.733013   10.936921   13.246219
   H       11.675364   10.997054   13.403033
   H       10.607390   10.065613   12.870356
   O        6.817102    0.464129    6.370012
   H        7.658578    0.057137    6.576186
   H        6.354982   -0.191503    5.847687
   O        1.877602    1.103199    1.065379
   H        1.246493    1.238281    0.358494
   H        1.760703    0.187866    1.319801
   O        1.482189   14.665383    3.675805
   H        1.276605   14.999570    4.548895
   H        0.658438   14.292874    3.361315
   O        7.803031   13.614321    3.136931
   H        7.063535   13.014958    3.036227
   H        7.409720   14.431335    3.443567
   O        3.900186   11.575771   11.761076
   H        3.362680   11.241360   11.043101
   H        4.650140   11.984686   11.329118
   O        3.099749    0.052529    6.407975
   H        2.266368    0.522405    6.377546
   H        3.197988   -0.202714    7.325271
   O        1.934641    2.311321   11.517918
   H        2.232071    3.143554   11.885553
   H        2.738076    1.869685   11.242815
   O        3.175075    4.313766   12.792730
   H        3.528124    4.237256   13.679146
   H        3.523462    5.143458   12.466433
   O        8.897164    8.705187   12.713097
   H        8.936619    7.766231   12.894856
   H        8.492994    9.083968   13.493740
   O        8.653610    4.056108    1.776841
   H        8.992162    3.247123    1.393230
   H        9.100185    4.754142    1.297726
   O       12.233631   13.954015    0.046515
   H       12.381833   14.636293   -0.608285
   H       11.283345   13.931891    0.159202
   O       14.796339    4.377378   11.270736
   H       14.869538    4.640061   12.188272
   H       14.884893    5.194116   10.779484
   O        1.593675    7.057633    0.921281
   H        1.442127    6.416084    1.615313
   H        1.216973    7.870157    1.259118
   O        7.716601   12.932617   14.347733
   H        6.815750   13.153963   14.583751
   H        8.255674   13.481809   14.916961
   O        7.477526   10.170846   14.759350
   H        7.456775   11.127071   14.721480
   H        7.836409    9.972657   15.624310
   O        0.362849    2.044252   13.949524
   H        0.456868    2.927073   14.307322
   H        0.774832    2.089854   13.086725
   O       11.610357    4.127170    3.248872
   H       11.798776    4.350890    4.160288
   H       10.662394    4.231667    3.167153
   O        0.477547    5.509570    8.619770
   H        0.218590    5.620557    7.704973
   H        0.713959    6.390273    8.910810
   O        9.230114    2.484946   10.373962
   H        9.468560    1.580301   10.171495
   H        8.400819    2.414474   10.846758
   O       13.945985    8.450867   13.631704
   H       13.908094    9.266591   14.131094
   H       13.596483    8.680192   12.770606
   O       14.103512   13.571746    2.454882
   H       13.878868   12.680941    2.723646
   H       14.778669   13.457562    1.786035
   O        8.383114    3.286171    5.880213
   H        8.912984    2.491903    5.812329
   H        8.634835    3.671588    6.719452
   O        1.914874   10.532120    1.627651
   H        2.542768   10.404354    2.338747
   H        2.315458   10.100071    0.873265
   O        5.839225   12.920743   10.184445
   H        6.534648   12.476247    9.699634
   H        5.931406   13.842917    9.945008
   O        3.147514    9.517269   14.247238
   H        4.011196    9.104997   14.229435
   H        3.196804   10.206335   13.584674
   O       14.262671    8.259695    5.931530
   H       14.391785    9.208039    5.917187
   H       13.410547    8.139821    6.350751
   O        1.705852    7.069214    5.230639
   H        1.624533    6.542820    4.435323
   H        0.818147    7.383483    5.402237
   O       12.190509   13.913980    4.930367
   H       12.936157   13.874806    5.529288
   H       12.275085   14.763295    4.497074
   O       14.099701   13.869761    7.033280
   H       14.538887   13.501368    7.799853
   H       13.841835   14.750706    7.304708
   O        5.874464    0.177952   12.982224
   H        5.174823   -0.259046   13.467783
   H        5.493126    0.359774   12.123298
   O        7.169739    1.502176    2.717932
   H        7.341961    2.308776    3.203698
   H        6.241826    1.323562    2.870601
   O        5.565490    8.403892   13.837552
   H        5.588654    7.978698   14.694818
   H        6.199718    9.117507   13.906396
   O        4.436116    7.003380   11.805706
   H        4.878050    7.525256   12.475461
   H        3.689229    7.538960   11.538225
   O       12.658106   10.660661    3.961562
   H       13.074296    9.871364    3.615112
   H       12.207435   11.044278    3.209256
   O        8.870954   11.110604    4.400480
   H        8.617592   11.945767    4.007363
   H        9.702801   10.890528    3.981160
   O        7.571105    1.773884   14.787197
   H        7.594103    1.350446   15.645336
   H        6.890580    1.303529   14.305653
   O        5.584902    3.730294    0.174332
   H        6.393689    3.223828    0.099585
   H        5.752694    4.526266   -0.330154
   O       13.798792    8.349504    2.991748
   H       12.958220    7.953716    2.761480
   H       13.981567    8.028065    3.874642
   O        8.272340    6.793924    5.375948
   H        7.877927    6.819328    4.504154
   H        8.067233    7.647664    5.757118
   O       11.075093   12.302122    2.815590
   H       11.200497   12.859100    3.583888
   H       10.921107   12.915503    2.097061
   O       12.454815    0.958726    2.485642
   H       13.035985    0.201447    2.414922
   H       12.136709    1.101194    1.594158
   O        9.452424    6.582342    1.405656
   H        9.509734    6.501305    0.453616
   H        8.513446    6.572353    1.591271
   O        8.407078    9.654862    2.176418
   H        8.390831   10.123613    3.010829
   H        7.914861    8.851017    2.343113
   O        9.173051    4.169599    8.219710
   H        9.175064    3.601017    8.989737
   H        9.139835    5.057082    8.576786
   O        6.990633    6.824174    2.403475
   H        6.190076    7.106752    1.961333
   H        6.822331    5.913574    2.645784
   O        4.369027    9.396084    7.657824
   H        4.296062    8.782270    6.926975
   H        4.667603    8.860065    8.392512
   O       11.202108    7.404170    3.289267
   H       10.845351    6.934482    4.043157
   H       10.570759    7.246183    2.587363
   O        5.209171    3.870537   10.043543
   H        5.484866    3.311778    9.316898
   H        4.316126    4.132317    9.819548
   O        6.888067    4.248193    3.822919
   H        7.511409    4.133900    3.105553
   H        7.353637    3.933541    4.597819
   O       10.702299    5.478116    5.825632
   H       10.519967    4.727056    6.390340
   H        9.839577    5.836188    5.616526
   O        4.509334    2.752876    4.006979
   H        3.899070    3.105747    3.359452
   H        5.277878    3.320263    3.946620
   O        4.399553    7.652488    1.481892
   H        4.201743    8.334270    2.123981
   H        3.543034    7.320873    1.212375
   O       14.940231   10.884118    5.750812
   H       15.399130   11.465074    5.144072
   H       14.063271   11.260249    5.826290
   O       12.632808    4.570265    9.051308
   H       13.402022    5.048197    8.741270
   H       12.414144    3.975932    8.333543
   O        9.448127   11.981476    6.847522
   H        9.199937   11.703598    5.965809
   H       10.323841   11.617124    6.976382
   O       11.958347    2.829858   11.378552
   H       12.535092    2.815428   10.614753
   H       11.089649    3.011462   11.019921
   O        1.478653    8.398927   12.287393
   H        0.737322    8.130464   12.830153
   H        2.147486    8.674782   12.914130
   O        5.608828    5.950902    7.216898
   H        5.592857    6.305865    8.105705
   H        6.457084    6.221589    6.865582
   O        5.570306   11.951330    2.807088
   H        4.989321   12.517398    2.298900
   H        5.505009   12.282595    3.702762
   O        5.422896   13.429991    5.164960
   H        4.820663   14.005069    4.692908
   H        4.929594   13.145487    5.934338
   O        9.350228   14.709004    6.560184
   H       10.131718   15.018500    6.102236
   H        9.480152   13.764479    6.645180
   O        6.959991    2.853403   11.950610
   H        6.467356    2.205399   12.454230
   H        6.343975    3.158566   11.284552
   O        6.324400    5.272073   13.191863
   H        5.581521    5.646956   12.718761
   H        6.451857    4.410568   12.794627
   O       10.386925    1.743364    0.357062
   H       10.839602    2.488067   -0.038833
   H        9.520378    1.745485   -0.049539
   O        0.831980    1.645646    5.709897
   H        0.946771    2.567170    5.941948
   H        0.524708    1.662881    4.803520
   O       11.814854   10.825049    6.620915
   H       11.815954    9.869035    6.573289
   H       11.946492   11.110526    5.716810
   O       11.593428    7.742822    6.735131
   H       10.989960    7.626580    7.468988
   H       11.393840    7.017628    6.143110
   O        3.085455    3.456258    1.545499
   H        2.679543    2.594139    1.454850
   H        3.912009    3.383728    1.068237
   O        4.133268   14.911307    3.451248
   H        4.173284   15.851918    3.624112
   H        3.228884   14.668989    3.650253
   O        7.861169    9.163164    6.582666
   H        8.129081    9.877672    6.004796
   H        6.991439    9.417323    6.891218
   O        2.618398    4.128321    9.617893
   H        1.941304    4.716964    9.284314
   H        2.138744    3.474754   10.126827
   O       11.068890    4.245774   13.881970
   H       11.852166    4.471396   14.383773
   H       11.400663    3.990076   13.021286
   O       13.499227    1.616320    7.349842
   H       14.338609    1.558468    6.893418
   H       13.723673    1.928905    8.226282
   O        0.463547    5.745474   13.635882
   H        1.155325    5.899115   14.279364
   H       -0.348724    5.925953   14.109037
   O       12.053463   13.602965   10.566185
   H       11.260571   13.330650   11.028136
   H       12.412846   14.309753   11.102401
   O       14.749815   10.045837    8.492552
   H       14.886592   10.430398    7.626737
   H       13.931294   10.434441    8.801167
   O        4.052153    3.888115    6.306454
   H        4.883342    4.355832    6.387679
   H        4.157895    3.344658    5.525618
   O        0.492950   12.777584    9.606411
   H        0.140019   12.622518   10.482553
   H        0.621407   11.902235    9.241040
   O        1.138452    4.425389    6.076317
   H        1.833026    4.212626    6.699639
   H        1.293914    5.341699    5.847320
   O       11.296658    2.154951    5.573476
   H       12.178960    2.039470    5.926235
   H       11.434767    2.454983    4.675067
   O       13.424129    0.615711   12.412387
   H       14.015704    0.999703   13.059551
   H       12.873142    1.345065   12.128329
   O        8.034381   11.639473    9.307444
   H        8.586777   11.884134   10.049894
   H        8.585294   11.788600    8.539012
   O        9.931644    0.071636    9.422869
   H       10.849598   -0.134712    9.598973
   H        9.764344   -0.298919    8.556306
   O        5.525510    7.669268    9.528206
   H        5.241028    7.336543   10.379439
   H        6.231425    8.282160    9.733824
   O        9.437834   14.089723    1.058438
   H        9.778047   14.980304    0.972684
   H        8.917560   14.107880    1.861691
   O       14.256669   10.292627    0.895015
   H       13.890901    9.740279    1.585927
   H       15.136294   10.511090    1.202855
   O        4.419096    0.840723   10.446369
   H        3.833301    0.190248   10.059125
   H        4.705938    1.376019    9.706497
   O        9.068047    6.108466   13.734830
   H        9.538259    5.274760   13.726677
   H        8.218791    5.908872   13.340929
   O       11.753877    7.544164   14.743670
   H       12.405695    7.882404   14.129700
   H       11.534835    8.293201   15.297922
   O        9.655969   12.871841   11.949822
   H        8.805291   12.994663   12.371122
   H       10.033059   12.109123   12.388336
   O        0.958811    7.972139    9.710191
   H        0.279901    8.510988    9.304046
   H        0.824774    8.086129   10.651080
   O       12.310956   11.002922    9.288317
   H       12.187186   11.176276    8.355118
   H       12.156936   11.847426    9.711782
   O        4.516537    7.570291    5.473387
   H        3.564955    7.467035    5.481290
   H        4.843825    6.816361    5.964003
   O        5.282463    2.106280    8.038633
   H        4.795517    2.757573    7.533725
   H        5.695534    1.550256    7.377995
   O       12.338751    8.955670   11.695952
   H       11.677859    8.311049   11.443134
   H       12.259639    9.649776   11.041589
   O       10.857472    9.852099    0.973321
   H       10.025532    9.785007    1.441942
   H       10.701665   10.515951    0.301565
   O        7.744504    9.055870   10.206095
   H        8.019456    9.908033    9.867789
   H        8.251342    8.941943   11.010065
   O        9.716062    7.303657    8.560276
   H        8.913203    7.797142    8.727972
   H       10.084504    7.142415    9.428886
   O        2.515625   10.524127    9.422175
   H        3.081140   10.186435    8.727633
   H        1.768567    9.925832    9.435540
   O        0.144909   11.509224   12.077640
   H        0.098067   10.560081   11.962902
   H       -0.601876   11.720369   12.637963
   O       13.424547    5.325730    0.469151
   H       12.702946    5.927352    0.652385
   H       13.574514    4.871294    1.298145
   O        1.069135    5.109266    3.074811
   H        0.641472    4.373040    3.512198
   H        1.827781    4.721445    2.638596
   O        4.082695    9.622819    3.274314
   H        4.691800   10.347951    3.135008
   H        4.332598    9.259309    4.123808
   O        4.782340   12.358414    7.758240
   H        5.257743   12.326819    8.588436
   H        4.693638   11.441707    7.497447
   O        4.118350   14.431390    0.211358
   H        3.635839   13.690639   -0.155660
   H        3.442391   15.071509    0.433976
   O       13.441412   11.801201   13.959738
   H       13.713026   11.205023   14.657613
   H       13.033221   12.536198   14.417331
   O       14.840943    2.259436    3.164969
   H       15.496483    1.832745    2.613214
   H       14.022146    1.809710    2.956282
   O       14.271241    2.122490    9.887504
   H       14.673544    1.469605   10.460326
   H       14.546043    2.963712   10.252279
